C43H58N12O12S2
APtclcactv10092117123D 0   0.00000     0.00000
 
127129  0  0  1  0  0  0  0  0999 V2000
   -0.0897    3.9453   -0.7482 S   0  0  0  0  0  0  0  0  0  0  0  0
   -1.5744    4.0083   -2.1604 S   0  0  0  0  0  0  0  0  0  0  0  0
   -2.9086    3.0482   -1.3932 C   0  0  0  0  0  0  0  0  0  0  0  0
   -4.1261    2.9797   -2.3660 C   0  4  2  0  0  0  0  0  0  0  0  0
   -5.2968    2.9139   -3.3015 N   0  0  0  0  0  0  0  0  0  0  0  0
   -5.1462    3.4975   -4.1108 H   0  0  0  0  0  0  0  0  0  0  0  0
   -5.4894    1.9615   -3.5733 H   0  0  0  0  0  0  0  0  0  0  0  0
   -4.9062    2.1156   -1.3276 C   0  0  0  0  0  0  0  0  0  0  0  0
   -5.0038    2.4790   -0.1747 O   0  0  0  0  0  0  0  0  0  0  0  0
   -5.4766    0.9473   -1.7344 N   0  0  0  0  0  0  0  0  0  0  0  0
   -5.4155    0.6417   -2.6529 H   0  0  0  0  0  0  0  0  0  0  0  0
   -6.2095    0.1522   -0.6779 C   0  4  1  0  0  0  0  0  0  0  0  0
   -6.9657   -0.6683    0.4122 C   0  0  0  0  0  0  0  0  0  0  0  0
   -8.1201    0.1432    0.9410 C   0  0  0  0  0  0  0  0  0  0  0  0
   -9.3616    0.0508    0.3395 C   0  0  0  0  0  0  0  0  0  0  0  0
  -10.4214    0.7940    0.8221 C   0  0  0  0  0  0  0  0  0  0  0  0
  -10.2393    1.6334    1.9116 C   0  0  0  0  0  0  0  0  0  0  0  0
  -11.2803    2.3652    2.3885 O   0  0  0  0  0  0  0  0  0  0  0  0
  -11.7966    1.9160    3.0717 H   0  0  0  0  0  0  0  0  0  0  0  0
   -8.9927    1.7240    2.5137 C   0  0  0  0  0  0  0  0  0  0  0  0
   -7.9374    0.9747    2.0305 C   0  0  0  0  0  0  0  0  0  0  0  0
   -5.2743   -1.0638   -0.9623 C   0  0  0  0  0  0  0  0  0  0  0  0
   -4.4470   -1.0137   -1.8478 O   0  0  0  0  0  0  0  0  0  0  0  0
   -5.4058   -2.1874   -0.1940 N   0  0  0  0  0  0  0  0  0  0  0  0
   -6.0645   -2.2599    0.5143 H   0  0  0  0  0  0  0  0  0  0  0  0
   -4.4678   -3.2863   -0.5240 C   0  0  1  0  0  0  0  0  0  0  0  0
   -3.8482   -3.0406   -1.9344 C   0  4  2  0  0  0  0  0  0  0  0  0
   -3.2286   -2.7949   -3.3449 C   0  0  0  0  0  0  0  0  0  0  0  0
   -1.7597   -2.3943   -3.1939 C   0  0  0  0  0  0  0  0  0  0  0  0
   -5.2177   -3.3870   -2.5964 C   0  0  0  0  0  0  0  0  0  0  0  0
   -5.0012   -4.2369   -0.5190 H   0  0  0  0  0  0  0  0  0  0  0  0
   -3.3739   -3.3098    0.5124 C   0  0  0  0  0  0  0  0  0  0  0  0
   -3.5903   -2.9317    1.6443 O   0  0  0  0  0  0  0  0  0  0  0  0
   -2.1386   -3.7624    0.1592 N   0  0  0  0  0  0  0  0  0  0  0  0
   -1.9486   -4.0814   -0.7369 H   0  0  0  0  0  0  0  0  0  0  0  0
   -1.0791   -3.7406    1.2375 C   0  4  1  0  0  0  0  0  0  0  0  0
    0.0141   -3.7181    2.3502 C   0  0  0  0  0  0  0  0  0  0  0  0
   -0.4551   -4.5534    3.5431 C   0  0  0  0  0  0  0  0  0  0  0  0
    0.6009   -4.5317    4.6179 C   0  0  0  0  0  0  0  0  0  0  0  0
    1.6277   -3.9094    4.4468 O   0  0  0  0  0  0  0  0  0  0  0  0
    0.4043   -5.2039    5.7695 N   0  0  0  0  0  0  0  0  0  0  0  0
   -0.4169   -5.7016    5.9064 H   0  0  0  0  0  0  0  0  0  0  0  0
    1.0841   -5.1899    6.4613 H   0  0  0  0  0  0  0  0  0  0  0  0
   -0.0717   -3.1298    0.2149 C   0  0  0  0  0  0  0  0  0  0  0  0
   -0.2040   -3.3244   -0.9748 O   0  0  0  0  0  0  0  0  0  0  0  0
    0.9636   -2.3703    0.6865 N   0  0  0  0  0  0  0  0  0  0  0  0
    1.0980   -2.2036    1.6325 H   0  0  0  0  0  0  0  0  0  0  0  0
    1.8862   -1.8082   -0.3780 C   0  4  1  0  0  0  0  0  0  0  0  0
    2.8352   -1.2301   -1.4728 C   0  0  0  0  0  0  0  0  0  0  0  0
    3.3395   -2.3517   -2.3437 C   0  0  0  0  0  0  0  0  0  0  0  0
    2.9890   -3.4924   -2.1269 O   0  0  0  0  0  0  0  0  0  0  0  0
    4.1801   -2.0874   -3.3636 N   0  0  0  0  0  0  0  0  0  0  0  0
    4.4604   -1.1751   -3.5370 H   0  0  0  0  0  0  0  0  0  0  0  0
    4.5047   -2.8094   -3.9242 H   0  0  0  0  0  0  0  0  0  0  0  0
    1.6590   -0.3788    0.2041 C   0  0  0  0  0  0  0  0  0  0  0  0
    1.1649   -0.2334    1.3021 O   0  0  0  0  0  0  0  0  0  0  0  0
    2.0236    0.7038   -0.5378 N   0  0  0  0  0  0  0  0  0  0  0  0
    2.4362    0.6094   -1.4106 H   0  0  0  0  0  0  0  0  0  0  0  0
    1.7505    2.0603    0.0711 C   0  4  2  0  0  0  0  0  0  0  0  0
    1.4646    3.4610    0.6955 C   0  0  0  0  0  0  0  0  0  0  0  0
    0.3209    3.8282    0.8629 O   0  0  0  0  0  0  0  0  0  0  0  0
    2.4922    4.2659    1.0502 N   0  0  0  0  0  0  0  0  0  0  0  0
    3.9292    3.8406    1.1043 C   0  4  2  0  0  0  0  0  0  0  0  0
    5.2904    3.0779    1.0454 C   0  0  0  0  0  0  0  0  0  0  0  0
    6.3014    3.6093    1.4535 O   0  0  0  0  0  0  0  0  0  0  0  0
    5.3420    1.8292    0.5409 N   0  0  0  0  0  0  0  0  0  0  0  0
    6.6295    1.0602    0.5723 C   0  4  1  0  0  0  0  0  0  0  0  0
    7.9685    0.2604    0.6050 C   0  0  0  0  0  0  0  0  0  0  0  0
    8.9601    0.9638    1.5339 C   0  0  0  0  0  0  0  0  0  0  0  0
   10.2268    0.1156    1.6639 C   0  0  0  0  0  0  0  0  0  0  0  0
    9.3203    2.3326    0.9529 C   0  0  0  0  0  0  0  0  0  0  0  0
    6.0913    0.1135   -0.5447 C   0  0  0  0  0  0  0  0  0  0  0  0
    5.0845    0.4060   -1.1544 O   0  0  0  0  0  0  0  0  0  0  0  0
    6.7452   -1.0294   -0.8323 N   0  0  0  0  0  0  0  0  0  0  0  0
    6.1625   -1.9900   -1.7724 C   0  0  0  0  0  0  0  0  0  0  0  0
    7.0849   -3.1727   -1.9184 C   0  0  0  0  0  0  0  0  0  0  0  0
    8.1264   -3.2096   -1.2982 O   0  0  0  0  0  0  0  0  0  0  0  0
    6.7523   -4.1895   -2.7382 N   0  0  0  0  0  0  0  0  0  0  0  0
    5.9193   -4.1600   -3.2343 H   0  0  0  0  0  0  0  0  0  0  0  0
    7.3461   -4.9508   -2.8322 H   0  0  0  0  0  0  0  0  0  0  0  0
    7.6016   -1.2159   -0.4167 H   0  0  0  0  0  0  0  0  0  0  0  0
    4.5465    1.4278    0.1576 H   0  0  0  0  0  0  0  0  0  0  0  0
    4.6769    5.1233    1.5934 C   0  0  0  0  0  0  0  0  0  0  0  0
    3.5981    5.9621    2.3139 C   0  0  0  0  0  0  0  0  0  0  0  0
    2.3588    5.6789    1.4364 C   0  0  0  0  0  0  0  0  0  0  0  0
    0.6456    2.3066   -1.0022 C   0  0  0  0  0  0  0  0  0  0  0  0
   -2.5549    2.0390   -1.1822 H   0  0  0  0  0  0  0  0  0  0  0  0
   -3.2132    3.5282   -0.4632 H   0  0  0  0  0  0  0  0  0  0  0  0
   -7.3419   -1.5933   -0.0250 H   0  0  0  0  0  0  0  0  0  0  0  0
   -6.2829   -0.9038    1.2286 H   0  0  0  0  0  0  0  0  0  0  0  0
   -9.5029   -0.6028   -0.5087 H   0  0  0  0  0  0  0  0  0  0  0  0
  -11.3907    0.7220    0.3514 H   0  0  0  0  0  0  0  0  0  0  0  0
   -8.8483    2.3769    3.3618 H   0  0  0  0  0  0  0  0  0  0  0  0
   -6.9669    1.0446    2.4991 H   0  0  0  0  0  0  0  0  0  0  0  0
   -3.2972   -3.7081   -3.9360 H   0  0  0  0  0  0  0  0  0  0  0  0
   -3.7735   -1.9954   -3.8468 H   0  0  0  0  0  0  0  0  0  0  0  0
   -1.3268   -2.2226   -4.1794 H   0  0  0  0  0  0  0  0  0  0  0  0
   -1.6911   -1.4810   -2.6028 H   0  0  0  0  0  0  0  0  0  0  0  0
   -1.2148   -3.1938   -2.6919 H   0  0  0  0  0  0  0  0  0  0  0  0
   -5.1596   -3.2028   -3.6692 H   0  0  0  0  0  0  0  0  0  0  0  0
   -5.4512   -4.4370   -2.4201 H   0  0  0  0  0  0  0  0  0  0  0  0
   -5.9991   -2.7632   -2.1624 H   0  0  0  0  0  0  0  0  0  0  0  0
    0.9413   -4.1349    1.9570 H   0  0  0  0  0  0  0  0  0  0  0  0
    0.1849   -2.6905    2.6710 H   0  0  0  0  0  0  0  0  0  0  0  0
   -1.3824   -4.1367    3.9363 H   0  0  0  0  0  0  0  0  0  0  0  0
   -0.6259   -5.5811    3.2223 H   0  0  0  0  0  0  0  0  0  0  0  0
    2.2891   -0.5122   -2.0848 H   0  0  0  0  0  0  0  0  0  0  0  0
    3.6797   -0.7326   -0.9958 H   0  0  0  0  0  0  0  0  0  0  0  0
    7.7802   -0.7486    0.9716 H   0  0  0  0  0  0  0  0  0  0  0  0
    8.3859    0.2096   -0.4006 H   0  0  0  0  0  0  0  0  0  0  0  0
    8.5076    1.0940    2.5169 H   0  0  0  0  0  0  0  0  0  0  0  0
   10.6794   -0.0146    0.6808 H   0  0  0  0  0  0  0  0  0  0  0  0
   10.9333    0.6167    2.3256 H   0  0  0  0  0  0  0  0  0  0  0  0
    9.9703   -0.8596    2.0777 H   0  0  0  0  0  0  0  0  0  0  0  0
    8.4179    2.9369    0.8603 H   0  0  0  0  0  0  0  0  0  0  0  0
   10.0268    2.8337    1.6147 H   0  0  0  0  0  0  0  0  0  0  0  0
    9.7729    2.2025   -0.0301 H   0  0  0  0  0  0  0  0  0  0  0  0
    5.1966   -2.3268   -1.3959 H   0  0  0  0  0  0  0  0  0  0  0  0
    6.0276   -1.5124   -2.7429 H   0  0  0  0  0  0  0  0  0  0  0  0
    5.4718    4.8541    2.2845 H   0  0  0  0  0  0  0  0  0  0  0  0
    5.0777    5.6709    0.7440 H   0  0  0  0  0  0  0  0  0  0  0  0
    3.4443    5.6052    3.3256 H   0  0  0  0  0  0  0  0  0  0  0  0
    3.8521    7.0154    2.2947 H   0  0  0  0  0  0  0  0  0  0  0  0
    2.3663    6.3106    0.5524 H   0  0  0  0  0  0  0  0  0  0  0  0
    1.4464    5.8260    2.0078 H   0  0  0  0  0  0  0  0  0  0  0  0
   -0.1271    1.5434   -0.9099 H   0  0  0  0  0  0  0  0  0  0  0  0
    1.0881    2.2572   -1.9971 H   0  0  0  0  0  0  0  0  0  0  0  0
  1  2  1  0  0  0  0
  2  3  1  0  0  0  0
  3  4  1  0  0  0  0
  4  5  1  0  0  0  0
  5  6  1  0  0  0  0
  5  7  1  0  0  0  0
  4  8  1  0  0  0  0
  8  9  2  0  0  0  0
  8 10  1  0  0  0  0
 10 11  1  0  0  0  0
 10 12  1  0  0  0  0
 12 13  1  0  0  0  0
 13 14  1  0  0  0  0
 14 15  2  0  0  0  0
 15 16  1  0  0  0  0
 16 17  2  0  0  0  0
 17 18  1  0  0  0  0
 18 19  1  0  0  0  0
 17 20  1  0  0  0  0
 20 21  2  0  0  0  0
 14 21  1  0  0  0  0
 12 22  1  0  0  0  0
 22 23  2  0  0  0  0
 22 24  1  0  0  0  0
 24 25  1  0  0  0  0
 24 26  1  0  0  0  0
 26 27  1  0  0  0  0
 27 28  1  0  0  0  0
 28 29  1  0  0  0  0
 27 30  1  0  0  0  0
 26 31  1  0  0  0  0
 26 32  1  0  0  0  0
 32 33  2  0  0  0  0
 32 34  1  0  0  0  0
 34 35  1  0  0  0  0
 34 36  1  0  0  0  0
 36 37  1  0  0  0  0
 37 38  1  0  0  0  0
 38 39  1  0  0  0  0
 39 40  2  0  0  0  0
 39 41  1  0  0  0  0
 41 42  1  0  0  0  0
 41 43  1  0  0  0  0
 36 44  1  0  0  0  0
 44 45  2  0  0  0  0
 44 46  1  0  0  0  0
 46 47  1  0  0  0  0
 46 48  1  0  0  0  0
 48 49  1  0  0  0  0
 49 50  1  0  0  0  0
 50 51  2  0  0  0  0
 50 52  1  0  0  0  0
 52 53  1  0  0  0  0
 52 54  1  0  0  0  0
 48 55  1  0  0  0  0
 55 56  2  0  0  0  0
 55 57  1  0  0  0  0
 57 58  1  0  0  0  0
 57 59  1  0  0  0  0
 59 60  1  0  0  0  0
 60 61  2  0  0  0  0
 60 62  1  0  0  0  0
 62 63  1  0  0  0  0
 63 64  1  0  0  0  0
 64 65  2  0  0  0  0
 64 66  1  0  0  0  0
 66 67  1  0  0  0  0
 67 68  1  0  0  0  0
 68 69  1  0  0  0  0
 69 70  1  0  0  0  0
 69 71  1  0  0  0  0
 67 72  1  0  0  0  0
 72 73  2  0  0  0  0
 72 74  1  0  0  0  0
 74 75  1  0  0  0  0
 75 76  1  0  0  0  0
 76 77  2  0  0  0  0
 76 78  1  0  0  0  0
 78 79  1  0  0  0  0
 78 80  1  0  0  0  0
 74 81  1  0  0  0  0
 66 82  1  0  0  0  0
 63 83  1  0  0  0  0
 83 84  1  0  0  0  0
 84 85  1  0  0  0  0
 62 85  1  0  0  0  0
 59 86  1  0  0  0  0
  1 86  1  0  0  0  0
  3 87  1  0  0  0  0
  3 88  1  0  0  0  0
 13 89  1  0  0  0  0
 13 90  1  0  0  0  0
 15 91  1  0  0  0  0
 16 92  1  0  0  0  0
 20 93  1  0  0  0  0
 21 94  1  0  0  0  0
 28 95  1  0  0  0  0
 28 96  1  0  0  0  0
 29 97  1  0  0  0  0
 29 98  1  0  0  0  0
 29 99  1  0  0  0  0
 30100  1  0  0  0  0
 30101  1  0  0  0  0
 30102  1  0  0  0  0
 37103  1  0  0  0  0
 37104  1  0  0  0  0
 38105  1  0  0  0  0
 38106  1  0  0  0  0
 49107  1  0  0  0  0
 49108  1  0  0  0  0
 68109  1  0  0  0  0
 68110  1  0  0  0  0
 69111  1  0  0  0  0
 70112  1  0  0  0  0
 70113  1  0  0  0  0
 70114  1  0  0  0  0
 71115  1  0  0  0  0
 71116  1  0  0  0  0
 71117  1  0  0  0  0
 75118  1  0  0  0  0
 75119  1  0  0  0  0
 83120  1  0  0  0  0
 83121  1  0  0  0  0
 84122  1  0  0  0  0
 84123  1  0  0  0  0
 85124  1  0  0  0  0
 85125  1  0  0  0  0
 86126  1  0  0  0  0
 86127  1  0  0  0  0
M  RAD  8   4   2  12   2  27   2  36   2  48   2  59   2  63   2  67   2
M  END
$$$$
